tests/data/state_estimation/test-ill-conditioned/input.json
{
  "version": "1.0",
  "type": "input",
  "is_batch": false,
  "attributes": {},
  "data": {
    "node": [
      {"id": 0, "u_rated": 100000},
      {"id": 2, "u_rated": 10000},
      {"id": 3, "u_rated": 10000},
      {"id": 4, "u_rated": 10000},
      {"id": 5, "u_rated": 100000}
    ],
    "line": [
      {"id": 7, "from_node": 4, "to_node": 2, "from_status": 1, "to_status": 1, "r1": 1, "x1": 0.10000000000000001, "c1": 1.0000000000000001e-05, "tan1": 0, "r0": 10, "x0": 10, "c0": 9.9999999999999995e-07, "tan0": 0, "i_n": 100},
      {"id": 8, "from_node": 4, "to_node": 3, "from_status": 1, "to_status": 1, "r1": 1, "x1": 0.10000000000000001, "c1": 1.0000000000000001e-05, "tan1": 0, "r0": 10, "x0": 10, "c0": 9.9999999999999995e-07, "tan0": 0, "i_n": 100},
      {"id": 9, "from_node": 3, "to_node": 2, "from_status": 1, "to_status": 1, "r1": 1, "x1": 0.10000000000000001, "c1": 1.0000000000000001e-05, "tan1": 0, "r0": 10, "x0": 10, "c0": 9.9999999999999995e-07, "tan0": 0, "i_n": 100},
      {"id": 10, "from_node": 0, "to_node": 5, "from_status": 1, "to_status": 1, "r1": 1, "x1": 0.10000000000000001, "c1": 1.0000000000000001e-05, "tan1": 0, "r0": 10, "x0": 10, "c0": 9.9999999999999995e-07, "tan0": 0, "i_n": 100}
    ],
    "transformer": [
      {"id": 1177, "from_node": 5, "to_node": 4, "from_status": 1, "to_status": 1, "u1": 100000, "u2": 10000, "sn": 33000000, "uk": 0.1, "pk": 68000, "i0": 0.01, "p0": 16400, "winding_from": 0, "winding_to": 2, "clock": 1, "tap_side": 0, "tap_pos": 2, "tap_min": -10, "tap_max": 10, "tap_nom": 0, "tap_size": 1600, "uk_min": 0.1, "uk_max": 0.1, "pk_min": 68000, "pk_max": 68000}
    ],
    "source": [
      {"id": 14, "node": 0, "status": 1, "u_ref": 1, "sk": 1000}
    ],
    "sym_load": [
      {"id": 15, "node": 4, "status": 1, "type": 0}
    ],
    "sym_power_sensor": [
      {"id": 18, "measured_object": 15, "measured_terminal_type": 4, "power_sigma": 100, "p_measured": 0, "q_measured": 0}
    ],
    "sym_voltage_sensor": [
      {"id": 19, "measured_object": 0, "u_sigma": 1000, "u_measured": 100000}
    ]
  }
}